OPT_V10/Two_days_MYC3/powerflow_results_t46.txt
Pandapower Network Debug Info
==================================================

BUS:
       vm_pu  va_degree      p_mw    q_mvar
0   0.992479   0.106976  0.000869  0.000912
1   0.987773   0.186393  0.001543  0.002134
2   0.983515   0.259238  0.002216  0.003093
3   0.988225   0.161956  0.003232  0.003929
4   0.999883   0.000778  0.011132  0.010194
5   0.999870   0.000846  0.010104  0.007851
6   0.999860   0.000942  0.011909  0.012734
7   0.999928   0.000559  0.000000  0.000000
8   0.999928   0.000565  0.000000  0.000000
9   1.000000   0.000000 -0.041165 -0.045957
10  1.000000   0.000006  0.000000  0.000000
--------------------------------------------------

LINE:
   p_from_mw  q_from_mvar   p_to_mw  q_to_mvar         pl_mw       ql_mvar  i_from_ka   i_to_ka      i_ka  vm_from_pu  va_from_degree  vm_to_pu  va_to_degree  loading_percent
0   0.041155     0.041957 -0.041152  -0.041954  3.378637e-06  2.634379e-06   0.002262  0.002262  0.002262    1.000000        0.000006  0.999928      0.000559         0.983540
1   0.033148     0.030781 -0.033146  -0.030780  1.582550e-06  1.233940e-06   0.001741  0.001741  0.001741    0.999928        0.000559  0.999883      0.000778         0.757059
2   0.007994     0.010174 -0.007916  -0.010113  7.831430e-05  6.106295e-05   0.018677  0.018677  0.018677    0.999928        0.000565  0.992479      0.106976         8.120427
3  -0.022014    -0.020585  0.022014   0.020585  3.142140e-07  2.449978e-07   0.001160  0.001160  0.001160    0.999870        0.000846  0.999883      0.000778         0.504436
4  -0.011909    -0.012734  0.011909   0.012734  1.487117e-07  1.159530e-07   0.000671  0.000671  0.000671    0.999860        0.000942  0.999870      0.000846         0.291816
5  -0.003772    -0.005238  0.003798   0.005258  2.526758e-05  1.970155e-05   0.009433  0.009433  0.009433    0.987773        0.186393  0.992479      0.106976         4.101193
6  -0.003232    -0.003929  0.003250   0.003943  1.769748e-05  1.379901e-05   0.007431  0.007431  0.007431    0.988225        0.161956  0.992479      0.106976         3.230885
7  -0.002216    -0.003093  0.002230   0.003104  1.354003e-05  1.055739e-05   0.005584  0.005584  0.005584    0.983515        0.259238  0.987773      0.186393         2.427921
--------------------------------------------------

TRAFO:
    p_hv_mw  q_hv_mvar   p_lv_mw  q_lv_mvar    pl_mw  ql_mvar   i_hv_ka   i_lv_ka  vm_hv_pu  va_hv_degree  vm_lv_pu  va_lv_degree  loading_percent
0  0.008004   0.011174 -0.007994  -0.010174  0.00001    0.001  0.000529  0.018677  0.999928      0.000559  0.999928      0.000565         0.137457
1  0.041165   0.045957 -0.041155  -0.041957  0.00001    0.004  0.000509  0.002262  1.000000      0.000000  1.000000      0.000006         0.154245
--------------------------------------------------
